<routes>

	<!-- Car Segment Small, 1-4 -->
	<vType id="electric_small" vClass="passenger" length="5" accel="3.5" decel="2.2" 
	sigma="1.0" maxSpeed="70" color="1,0,0" emissionClass="Energy/unknown">
		<param key="has.battery.device" value="true"/>
		<param key="has.emission.device" value="true"/>
        <param key="maximumBatteryCapacity" value="41000"/>
		<param key="actualBatteryCapacity" value="8200"/>
        <param key="maximumPower" value="80000"/>
        <param key="vehicleMass" value="1600"/>
        <param key="frontSurfaceArea" value="0"/>
		<param key="airDragCoefficient" value="0"/>
		<param key="internalMomentOfInertia" value="0"/>
		<param key="radialDragCoefficient" value="0"/>
		<param key="rollDragCoefficient" value="0"/>
		<param key="constantPowerIntake" value="0"/>
		<param key="propulsionEfficiency" value="1"/>
		<param key="recuperationEfficiency" value="0.56"/>
		<param key="stoppingTreshold" value="0.1"/>
	</vType>

	<!-- Car Segment Medium, 5-8 -->
	<vType id="electric_medium" vClass="passenger" length="5" accel="3.5" decel="2.2" sigma="1.0" maxSpeed="70" color="0,1,0" emissionClass="Energy/unknown">
		<param key="has.battery.device" value="true"/>
		<param key="has.emission.device" value="true"/>
        <param key="maximumBatteryCapacity" value="50000"/>
		<param key="actualBatteryCapacity" value="10000"/>
        <param key="maximumPower" value="239000"/>
        <param key="vehicleMass" value="1600"/>
        <param key="frontSurfaceArea" value="0"/>
		<param key="airDragCoefficient" value="0"/>
		<param key="internalMomentOfInertia" value="0"/>
		<param key="radialDragCoefficient" value="0"/>
		<param key="rollDragCoefficient" value="0"/>
		<param key="constantPowerIntake" value="0"/>
		<param key="propulsionEfficiency" value="1"/>
		<param key="recuperationEfficiency" value="0.59"/>
		<param key="stoppingTreshold" value="0.1"/>
	</vType>

	<!-- Car Segment Large, 9-13 -->
	<vType id="electric_large" vClass="passenger" length="5" accel="3.5" decel="2.2" sigma="1.0" maxSpeed="70" color="0,0,1" emissionClass="Energy/unknown">
		<param key="has.battery.device" value="true"/>
		<param key="has.emission.device" value="true"/>
        <param key="maximumBatteryCapacity" value="64000"/>
		<param key="actualBatteryCapacity" value="12800"/>
        <param key="maximumPower" value="150000"/>
        <param key="vehicleMass" value="1600"/>
        <param key="frontSurfaceArea" value="0"/>
		<param key="airDragCoefficient" value="0"/>
		<param key="internalMomentOfInertia" value="0"/>
		<param key="radialDragCoefficient" value="0"/>
		<param key="rollDragCoefficient" value="0"/>
		<param key="constantPowerIntake" value="0"/>
		<param key="propulsionEfficiency" value="1"/>
		<param key="recuperationEfficiency" value="0.57"/>
		<param key="stoppingTreshold" value="0.1"/>
	</vType>


	<!-- HH14, Segment small, 12 Cars, 4 Trips, 47km, H-W-P-P-H, 06:50-13:00-16:40-18:00 -->

	<flow id="HH_14_EV_1" type="electric_small" begin="3000" end="86400" number="1" from="-77731477#1" to="-77731477#1" via="10675846#3 -57828264#5">

		<stop chargingStation="hh14_ev1_work" until="25200" />
		<stop chargingStation="hh14_ev1_public" until="43200" />
		<stop parkingArea="hh14_ev1_home" />
	</flow>

	<flow id="HH_14_EV_2" type="electric_small" begin="3000" end="86400" number="1" from="-41602059#4" to="-41602059#4" via="193788216 193788218">

		<stop chargingStation="hh14_ev2_work" until="25200" />
		<stop chargingStation="hh14_ev2_public" until="43200" />
		<stop chargingStation="hh14_ev2_homecs" />
	</flow>

	<flow id="HH_14_EV_3" type="electric_small" begin="3000" end="86400" number="1" from="-244262389#0" to="-244262389#0" via="-32205372#4 -32205372#1">

		<stop chargingStation="hh14_ev3_work" until="25200" />
		<stop chargingStation="hh14_ev3_public" until="43200" />
		<stop parkingArea="hh14_ev3_home" />
	</flow>

	<flow id="HH_14_EV_4" type="electric_small" begin="3000" end="86400" number="1" from="-187645371#6" to="-187645371#6" via="108160284#4 -27435033#2">

		<stop chargingStation="hh14_ev4_work" until="25200" />
		<stop chargingStation="hh14_ev4_public" until="43200" />
		<stop parkingArea="hh14_ev4_home" />
	</flow>

	<flow id="HH_14_EV_5" type="electric_small" begin="3000" end="86400" number="1" from="44632761#0" to="44632761#0" via="-27355810#1 -39272747#7">

		<stop chargingStation="hh14_ev5_work" until="25200" />
		<stop chargingStation="hh14_ev5_public" until="43200" />
		<stop parkingArea="hh14_ev5_home" />
	</flow>

	<flow id="HH_14_EV_6" type="electric_small" begin="3000" end="86400" number="1" from="130126261#2" to="130126261#2" via="-96883823#10 -96883823#7">

		<stop chargingStation="hh14_ev6_work" until="25200" />
		<stop chargingStation="hh14_ev6_public" until="43200" />
		<stop parkingArea="hh14_ev6_home" />
	</flow>

	<flow id="HH_14_EV_7" type="electric_small" begin="3000" end="86400" number="1" from="-522012172#1" to="-522012172#1" via="31152873 -31152873">

		<stop chargingStation="hh14_ev7_work" until="25200" />
		<stop chargingStation="hh14_ev7_public" until="43200" />
		<stop parkingArea="hh14_ev7_home" />
	</flow>

	<flow id="HH_14_EV_8" type="electric_small" begin="3000" end="86400" number="1" from="-10675848" to="-10675848" via="174734588#1 174734590#0">

		<stop chargingStation="hh14_ev8_work" until="25200" />
		<stop chargingStation="hh14_ev8_public" until="43200" />
		<stop parkingArea="hh14_ev8_home" />
	</flow>

	<flow id="HH_14_EV_9" type="electric_small" begin="3000" end="86400" number="1" from="77731477#4" to="77731477#4" via="32608344#12 328005193#2">

		<stop chargingStation="hh14_ev9_work" until="25200" />
		<stop chargingStation="hh14_ev9_public" until="43200" />
		<stop parkingArea="hh14_ev9_home" />
	</flow>

	<flow id="HH_14_EV_10" type="electric_small" begin="3000" end="86400" number="1" from="39273150#1" to="39273150#1" via="190336574 31152887#1">

		<stop chargingStation="hh14_ev10_work" until="25200" />
		<stop chargingStation="hh14_ev10_public" until="43200" />
		<stop chargingStation="hh14_ev10_homecs" />
	</flow>

	<flow id="HH_14_EV_11" type="electric_small" begin="3000" end="86400" number="1" from="39779076#0" to="39779076#0" via="193799685 161482156#0">

		<stop chargingStation="hh14_ev11_work" until="25200" />
		<stop chargingStation="hh14_ev11_public" until="43200" />
		<stop parkingArea="hh14_ev11_home" />
	</flow>

	<flow id="HH_14_EV_12" type="electric_small" begin="3000" end="86400" number="1" from="40309039#1" to="40309039#1" via="44632537 63405622">

		<stop chargingStation="hh14_ev12_work" until="25200" />
		<stop chargingStation="hh14_ev12_public" until="43200" />
		<stop parkingArea="hh14_ev12_home" />
	</flow>

	<!-- HH6, Segment small, 30 Cars, 4 Trips, 24km, H-W-P-P-H, 07:00-13:10-16:30-17:50 -->

	<flow id="HH_6_EV_1" type="electric_small" begin="3600" end="86400" number="1" from="193101425" to="193101425" via="32594904#6 251916658#10">
		<stop chargingStation="hh6_ev1_work" until="25800" />
		<stop chargingStation="hh6_ev1_public" until="42600" />
		<stop chargingStation="hh6_ev1_homecs" />
	</flow>

	<flow id="HH_6_EV_2" type="electric_small" begin="3600" end="86400" number="1" from="-299684302#1" to="-299684302#1" via="53175165 53175159#1">
		<stop chargingStation="hh6_ev2_work" until="25800" />
		<stop chargingStation="hh6_ev2_public" until="42600" />
		<stop parkingArea="hh6_ev2_home" />
	</flow>

	<flow id="HH_6_EV_3" type="electric_small" begin="3600" end="86400" number="1" from="-240576093#6" to="-240576093#6" via="-245793703#2 -245793740#6">
		<stop chargingStation="hh6_ev3_work" until="25800" />
		<stop chargingStation="hh6_ev3_public" until="42600" />
		<stop chargingStation="hh6_ev3_homecs" />
	</flow>

	<flow id="HH_6_EV_4" type="electric_small" begin="3600" end="86400" number="1" from="29494917#1" to="29494917#1" via="34961746#4 34961876#0">
		<stop chargingStation="hh6_ev4_work" until="25800" />
		<stop chargingStation="hh6_ev4_public" until="42600" />
		<stop parkingArea="hh6_ev4_home" />
	</flow>

	<flow id="HH_6_EV_5" type="electric_small" begin="3600" end="86400" number="1" from="108408971#1" to="108408971#1" via="610683077#2 -33456547#3">
		<stop chargingStation="hh6_ev5_work" until="25800" />
		<stop chargingStation="hh6_ev5_public" until="42600" />
		<stop parkingArea="hh6_ev5_home" />
	</flow>

	<flow id="HH_6_EV_6" type="electric_small" begin="3600" end="86400" number="1" from="-9664312#2" to="-9664312#2" via="-166444440 258979217#0">
		<stop chargingStation="hh6_ev6_work" until="25800" />
		<stop chargingStation="hh6_ev6_public" until="42600" />
		<stop parkingArea="hh6_ev6_home" />
	</flow>

	<flow id="HH_6_EV_7" type="electric_small" begin="3600" end="86400" number="1" from="-27601811#0" to="-27601811#0" via="-254217521 152406541#1">
		<stop chargingStation="hh6_ev7_work" until="25800" />
		<stop chargingStation="hh6_ev7_public" until="42600" />
		<stop parkingArea="hh6_ev7_home" />
	</flow>

	<flow id="HH_6_EV_8" type="electric_small" begin="3600" end="86400" number="1" from="294407010#2" to="294407010#2" via="-36787414#1 -14890256#0">
		<stop chargingStation="hh6_ev8_work" until="25800" />
		<stop chargingStation="hh6_ev8_public" until="42600" />
		<stop parkingArea="hh6_ev8_home" />
	</flow>

	<flow id="HH_6_EV_9" type="electric_small" begin="3600" end="86400" number="1" from="130126023" to="130126023" via="-197064630#14 -197064630#12">
		<stop chargingStation="hh6_ev9_work" until="25800" />
		<stop chargingStation="hh6_ev9_public" until="42600" />
		<stop chargingStation="hh6_ev9_homecs" />
	</flow>

	<flow id="HH_6_EV_10" type="electric_small" begin="3600" end="86400" number="1" from="-252807637#1" to="-252807637#1" via="32384446#4 32384446#6">
		<stop chargingStation="hh6_ev10_work" until="25800" />
		<stop chargingStation="hh6_ev10_public" until="42600" />
		<stop parkingArea="hh6_ev10_home" />
	</flow>

	<flow id="HH_6_EV_11" type="electric_small" begin="3600" end="86400" number="1" from="-624680707#3" to="-624680707#3" via="201671228 341346901">
		<stop chargingStation="hh6_ev11_work" until="25800" />
		<stop chargingStation="hh6_ev11_public" until="42600" />
		<stop parkingArea="hh6_ev11_home" />
	</flow>

	<flow id="HH_6_EV_12" type="electric_small" begin="3600" end="86400" number="1" from="-130546142" to="-130546142" via="-26381693#4 26735616#1">
		<stop chargingStation="hh6_ev12_work" until="25800" />
		<stop chargingStation="hh6_ev12_public" until="42600" />
		<stop parkingArea="hh6_ev12_home" />
	</flow>

	<flow id="HH_6_EV_13" type="electric_small" begin="3600" end="86400" number="1" from="922053736" to="922053736" via="-30993772#3 -30993772#2">
		<stop chargingStation="hh6_ev13_work" until="25800" />
		<stop chargingStation="hh6_ev13_public" until="42600" />
		<stop parkingArea="hh6_ev13_home" />
	</flow>

	<flow id="HH_6_EV_14" type="electric_small" begin="3600" end="86400" number="1" from="688498389#3" to="688498389#3" via="-519506167#0 -4777171#15">
		<stop chargingStation="hh6_ev14_work" until="25800" />
		<stop chargingStation="hh6_ev14_public" until="42600" />
		<stop parkingArea="hh6_ev14_home" />
	</flow>

	<flow id="HH_6_EV_15" type="electric_small" begin="3600" end="86400" number="1" from="28218608#6" to="28218608#6" via="-37804697#7 -37804697#3">
		<stop chargingStation="hh6_ev15_work" until="25800" />
		<stop chargingStation="hh6_ev15_public" until="42600" />
		<stop chargingStation="hh6_ev15_homecs" />
	</flow>

	<flow id="HH_6_EV_16" type="electric_small" begin="3600" end="86400" number="1" from="-9702509#2" to="-9702509#2" via="155061847#1 155061847#2">
		<stop chargingStation="hh6_ev16_work" until="25800" />
		<stop chargingStation="hh6_ev16_public" until="42600" />
		<stop chargingStation="hh6_ev16_homecs" />
	</flow>

	<flow id="HH_6_EV_17" type="electric_small" begin="3600" end="86400" number="1" from="150115647" to="150115647" via="39272746#0 39404811">
		<stop chargingStation="hh6_ev17_work" until="25800" />
		<stop chargingStation="hh6_ev17_public" until="42600" />
		<stop parkingArea="hh6_ev17_home" />
	</flow>

	<flow id="HH_6_EV_18" type="electric_small" begin="3600" end="86400" number="1" from="-223944270#2" to="-223944270#2" via="204089986#2 204089986#4">
		<stop chargingStation="hh6_ev18_work" until="25800" />
		<stop chargingStation="hh6_ev18_public" until="42600" />
		<stop chargingStation="hh6_ev18_homecs" />
	</flow>

	<flow id="HH_6_EV_19" type="electric_small" begin="3600" end="86400" number="1" from="-522012172#3" to="-522012172#3" via="102699893#3 251327580">
		<stop chargingStation="hh6_ev19_work" until="25800" />
		<stop chargingStation="hh6_ev19_public" until="42600" />
		<stop chargingStation="hh6_ev19_homecs" />
	</flow>

	<flow id="HH_6_EV_20" type="electric_small" begin="3600" end="86400" number="1" from="-161144029#1" to="-161144029#1" via="-7976605#1 -290680442#1">
		<stop chargingStation="hh6_ev20_work" until="25800" />
		<stop chargingStation="hh6_ev20_public" until="42600" />
		<stop parkingArea="hh6_ev20_home" />
	</flow>

	<flow id="HH_6_EV_21" type="electric_small" begin="3600" end="86400" number="1" from="229917854" to="229917854" via="161319537#2 83425843#0">
		<stop chargingStation="hh6_ev21_work" until="25800" />
		<stop chargingStation="hh6_ev21_public" until="42600" />
		<stop chargingStation="hh6_ev21_homecs" />
	</flow>

	<flow id="HH_6_EV_22" type="electric_small" begin="3600" end="86400" number="1" from="364284539#0" to="364284539#0" via="-392549775#5 -392549775#2">
		<stop chargingStation="hh6_ev22_work" until="25800" />
		<stop chargingStation="hh6_ev22_public" until="42600" />
		<stop parkingArea="hh6_ev22_home" />
	</flow>

	<flow id="HH_6_EV_23" type="electric_small" begin="3600" end="86400" number="1" from="-218271806#0" to="-218271806#0" via="-32622581#5 -32622581#2">
		<stop chargingStation="hh6_ev23_work" until="25800" />
		<stop chargingStation="hh6_ev23_public" until="42600" />
		<stop chargingStation="hh6_ev23_homecs" />
	</flow>

	<flow id="HH_6_EV_24" type="electric_small" begin="3600" end="86400" number="1" from="-37002318#0" to="-37002318#0" via="102541101#7 26380393#4">
		<stop chargingStation="hh6_ev24_work" until="25800" />
		<stop chargingStation="hh6_ev24_public" until="42600" />
		<stop chargingStation="hh6_ev24_homecs" />
	</flow>

	<flow id="HH_6_EV_25" type="electric_small" begin="3600" end="86400" number="1" from="191428810" to="191428810" via="37629342#13 37629342#15">
		<stop chargingStation="hh6_ev25_work" until="25800" />
		<stop chargingStation="hh6_ev25_public" until="42600" />
		<stop chargingStation="hh6_ev25_homecs" />
	</flow>

	<flow id="HH_6_EV_26" type="electric_small" begin="3600" end="86400" number="1" from="-349699404#0" to="-349699404#0" via="127005676#3 832897358#1">
		<stop chargingStation="hh6_ev26_work" until="25800" />
		<stop chargingStation="hh6_ev26_public" until="42600" />
		<stop chargingStation="hh6_ev26_homecs" />
	</flow>

	<flow id="HH_6_EV_27" type="electric_small" begin="3600" end="86400" number="1" from="824174638#7" to="824174638#7" via="-161795938#1 -161795956#4">
		<stop chargingStation="hh6_ev27_work" until="25800" />
		<stop chargingStation="hh6_ev27_public" until="42600" />
		<stop chargingStation="hh6_ev27_homecs" />
	</flow>

	<flow id="HH_6_EV_28" type="electric_small" begin="3600" end="86400" number="1" from="-227668809#3" to="-227668809#3" via="93178212 30758350#2">
		<stop chargingStation="hh6_ev28_work" until="25800" />
		<stop chargingStation="hh6_ev28_public" until="42600" />
		<stop parkingArea="hh6_ev28_home" />
	</flow>

	<flow id="HH_6_EV_29" type="electric_small" begin="3600" end="86400" number="1" from="-226994695" to="-226994695" via="-623944034#2 -142896753#3">
		<stop chargingStation="hh6_ev29_work" until="25800" />
		<stop chargingStation="hh6_ev29_public" until="42600" />
		<stop chargingStation="hh6_ev29_homecs" />
	</flow>

	<flow id="HH_6_EV_30" type="electric_small" begin="3600" end="86400" number="1" from="142322446#2" to="142322446#2" via="108339481#3 -108339481#1">
		<stop chargingStation="hh6_ev30_work" until="25800" />
		<stop chargingStation="hh6_ev30_public" until="42600" />
		<stop parkingArea="hh6_ev30_home" />
	</flow>

	<!-- HH10, Segment medium, 34 Cars, 2 Trips, 24km, H-W-H, 07:10-16:20 -->

	<flow id="HH_10_EV_1" type="electric_medium" begin="4200" end="86400" number="1" from="415123460#1" to="415123460#1" via="-146283441#3">
		<stop chargingStation="hh10_ev1_work" until="37200" />
		<stop parkingArea="hh10_ev1_home" />
	</flow>

	<flow id="HH_10_EV_2" type="electric_medium" begin="4200" end="86400" number="1" from="150546880" to="150546880" via="338523146">
		<stop chargingStation="hh10_ev2_work" until="37200" />
		<stop chargingStation="hh10_ev2_homecs" />
	</flow>

	<flow id="HH_10_EV_3" type="electric_medium" begin="4200" end="86400" number="1" from="-456100652" to="-456100652" via="-364284544#4">
		<stop chargingStation="hh10_ev3_work" until="37200" />
		<stop chargingStation="hh10_ev3_homecs" />
	</flow>

	<flow id="HH_10_EV_4" type="electric_medium" begin="4200" end="86400" number="1" from="167391778#0" to="167391778#0" via="33440737#1">
		<stop chargingStation="hh10_ev4_work" until="37200" />
		<stop chargingStation="hh10_ev4_homecs" />
	</flow>

	<flow id="HH_10_EV_5" type="electric_medium" begin="4200" end="86400" number="1" from="615449790#4" to="615449790#4" via="174693587#1">
		<stop chargingStation="hh10_ev5_work" until="37200" />
		<stop chargingStation="hh10_ev5_homecs" />
	</flow>

	<flow id="HH_10_EV_6" type="electric_medium" begin="4200" end="86400" number="1" from="250851799#0" to="250851799#0" via="-31152887#0">
		<stop chargingStation="hh10_ev6_work" until="37200" />
		<stop chargingStation="hh10_ev6_homecs" />
	</flow>

	<flow id="HH_10_EV_7" type="electric_medium" begin="4200" end="86400" number="1" from="-494612158" to="-494612158" via="-41205052#3">
		<stop chargingStation="hh10_ev7_work" until="37200" />
		<stop parkingArea="hh10_ev7_home" />
	</flow>

	<flow id="HH_10_EV_8" type="electric_medium" begin="4200" end="86400" number="1" from="-120084634#3" to="-120084634#3" via="30617881#8">
		<stop chargingStation="hh10_ev8_work" until="37200" />
		<stop parkingArea="hh10_ev8_home" />
	</flow>

	<flow id="HH_10_EV_9" type="electric_medium" begin="4200" end="86400" number="1" from="-47225747" to="-47225747" via="870453326">
		<stop chargingStation="hh10_ev9_work" until="37200" />
		<stop chargingStation="hh10_ev9_homecs" />
	</flow>

	<flow id="HH_10_EV_10" type="electric_medium" begin="4200" end="86400" number="1" from="385966797#2" to="385966797#2" via="245166240#4">
		<stop chargingStation="hh10_ev10_work" until="37200" />
		<stop chargingStation="hh10_ev10_homecs" />
	</flow>

	<flow id="HH_10_EV_11" type="electric_medium" begin="4200" end="86400" number="1" from="32385278#1" to="32385278#1" via="-366630587">
		<stop chargingStation="hh10_ev11_work" until="37200" />
		<stop parkingArea="hh10_ev11_home" />
	</flow>

	<flow id="HH_10_EV_12" type="electric_medium" begin="4200" end="86400" number="1" from="14889503#1" to="14889503#1" via="24534636#13">
		<stop chargingStation="hh10_ev12_work" until="37200" />
		<stop chargingStation="hh10_ev12_homecs" />
	</flow>

	<flow id="HH_10_EV_13" type="electric_medium" begin="4200" end="86400" number="1" from="41270994#1" to="41270994#1" via="26392610#1">
		<stop chargingStation="hh10_ev13_work" until="37200" />
		<stop chargingStation="hh10_ev13_homecs" />
	</flow>

	<flow id="HH_10_EV_14" type="electric_medium" begin="4200" end="86400" number="1" from="32448174#3" to="32448174#3" via="443421896#0">
		<stop chargingStation="hh10_ev14_work" until="37200" />
		<stop parkingArea="hh10_ev14_home" />
	</flow>

	<flow id="HH_10_EV_15" type="electric_medium" begin="4200" end="86400" number="1" from="-323348444#5" to="-323348444#5" via="-40711859#1">
		<stop chargingStation="hh10_ev15_work" until="37200" />
		<stop parkingArea="hh10_ev15_home" />
	</flow>

	<flow id="HH_10_EV_16" type="electric_medium" begin="4200" end="86400" number="1" from="-230602992" to="-230602992" via="117904582#20">
		<stop chargingStation="hh10_ev16_work" until="37200" />
		<stop parkingArea="hh10_ev16_home" />
	</flow>

	<flow id="HH_10_EV_17" type="electric_medium" begin="4200" end="86400" number="1" from="32660083#11" to="32660083#11" via="173525852">
		<stop chargingStation="hh10_ev17_work" until="37200" />
		<stop chargingStation="hh10_ev17_homecs" />
	</flow>

	<flow id="HH_10_EV_18" type="electric_medium" begin="4200" end="86400" number="1" from="-22901897#3" to="-22901897#3" via="-23055466#1">
		<stop chargingStation="hh10_ev18_work" until="37200" />
		<stop chargingStation="hh10_ev18_homecs" />
	</flow>

	<flow id="HH_10_EV_19" type="electric_medium" begin="4200" end="86400" number="1" from="5073633#1" to="5073633#1" via="33117531#3">
		<stop chargingStation="hh10_ev19_work" until="37200" />
		<stop parkingArea="hh10_ev19_home" />
	</flow>

	<flow id="HH_10_EV_20" type="electric_medium" begin="4200" end="86400" number="1" from="187977271" to="187977271" via="252533214#1">
		<stop chargingStation="hh10_ev20_work" until="37200" />
		<stop chargingStation="hh10_ev20_homecs" />
	</flow>

	<flow id="HH_10_EV_21" type="electric_medium" begin="4200" end="86400" number="1" from="9674506#2" to="9674506#2" via="-160616788#4">
		<stop chargingStation="hh10_ev21_work" until="37200" />
	<stop parkingArea="hh10_ev21_home" />
	</flow>

	<flow id="HH_10_EV_22" type="electric_medium" begin="4200" end="86400" number="1" from="-382069127" to="-382069127" via="-30617881#2">
		<stop chargingStation="hh10_ev22_work" until="37200" />
		<stop parkingArea="hh10_ev22_home" />
	</flow>

	<flow id="HH_10_EV_23" type="electric_medium" begin="4200" end="86400" number="1" from="-170246201#1" to="-170246201#1" via="-10373107#2">
		<stop chargingStation="hh10_ev23_work" until="37200" />
		<stop chargingStation="hh10_ev23_homecs" />
	</flow>

	<flow id="HH_10_EV_24" type="electric_medium" begin="4200" end="86400" number="1" from="251839830#0" to="251839830#0" via="14889780#2">
		<stop chargingStation="hh10_ev24_work" until="37200" />
		<stop chargingStation="hh10_ev24_homecs" />
	</flow>

	<flow id="HH_10_EV_25" type="electric_medium" begin="4200" end="86400" number="1" from="-26300053#4" to="-26300053#4" via="-52374136#4">
		<stop chargingStation="hh10_ev25_work" until="37200" />
		<stop chargingStation="hh10_ev25_homecs" />
	</flow>

	<flow id="HH_10_EV_26" type="electric_medium" begin="4200" end="86400" number="1" from="31976913#16" to="31976913#16" via="28244264#1">
		<stop chargingStation="hh10_ev26_work" until="37200" />
		<stop parkingArea="hh10_ev26_home" />
	</flow>

	<flow id="HH_10_EV_27" type="electric_medium" begin="4200" end="86400" number="1" from="-39274103#1" to="-39274103#1" via="27261757#3">
		<stop chargingStation="hh10_ev27_work" until="37200" />
		<stop parkingArea="hh10_ev27_home" />
	</flow>

	<flow id="HH_10_EV_28" type="electric_medium" begin="4200" end="86400" number="1" from="-105434722#4" to="-105434722#4" via="33439899#5">
		<stop chargingStation="hh10_ev28_work" until="37200" />
		<stop parkingArea="hh10_ev28_home" />
	</flow>

	<flow id="HH_10_EV_29" type="electric_medium" begin="4200" end="86400" number="1" from="265332306" to="265332306" via="204125651#9">
		<stop chargingStation="hh10_ev29_work" until="37200" />
		<stop chargingStation="hh10_ev29_homecs" />
	</flow>

	<flow id="HH_10_EV_30" type="electric_medium" begin="4200" end="86400" number="1" from="-25950523#5" to="-25950523#5" via="254905726#0">
		<stop chargingStation="hh10_ev30_work" until="37200" />
		<stop chargingStation="hh10_ev30_homecs" />
	</flow>

	<flow id="HH_10_EV_31" type="electric_medium" begin="4200" end="86400" number="1" from="522364163" to="522364163" via="29494917#7">
		<stop chargingStation="hh10_ev31_work" until="37200" />
		<stop chargingStation="hh10_ev31_homecs" />
	</flow>

	<flow id="HH_10_EV_32" type="electric_medium" begin="4200" end="86400" number="1" from="-33169948#1" to="-33169948#1" via="-252745279#3">
		<stop chargingStation="hh10_ev32_work" until="37200" />
		<stop parkingArea="hh10_ev32_home" />
	</flow>

	<flow id="HH_10_EV_33" type="electric_medium" begin="4200" end="86400" number="1" from="-27245566#1" to="-27245566#1" via="248563393">
		<stop chargingStation="hh10_ev33_work" until="37200" />
		<stop parkingArea="hh10_ev33_home" />
	</flow>

	<flow id="HH_10_EV_34" type="electric_medium" begin="4200" end="86400" number="1" from="-32385278#0" to="-32385278#0" via="29261696">
		<stop chargingStation="hh10_ev34_work" until="37200" />
		<stop parkingArea="hh10_ev34_home" />
	</flow>

	<!-- HH12, Segment medium, 41 Cars, 2 Trips, 26km, H-W-H, 07:50-16:00 -->

	<flow id="HH_12_EV_1" type="electric_medium" begin="6600" end="86400" number="1" from="32622581#5" to="32622581#5" via="53175069#3">

		<stop chargingStation="hh12_ev1_work" until="36000" />
		<stop chargingStation="hh12_ev1_homecs" />
	</flow>

	<flow id="HH_12_EV_2" type="electric_medium" begin="6600" end="86400" number="1" from="-139063174#0" to="-139063174#0" via="24652715#2">

		<stop chargingStation="hh12_ev2_work" until="36000" />
		<stop parkingArea="hh12_ev2_home" />
	</flow>

	<flow id="HH_12_EV_3" type="electric_medium" begin="6600" end="86400" number="1" from="-39168812#1" to="-39168812#1" via="-33117536#1">

		<stop chargingStation="hh12_ev3_work" until="36000" />
		<stop parkingArea="hh12_ev3_home" />
	</flow>

	<flow id="HH_12_EV_4" type="electric_medium" begin="6600" end="86400" number="1" from="27918966#2" to="27918966#2" via="251846159#0">

		<stop chargingStation="hh12_ev4_work" until="36000" />
		<stop parkingArea="hh12_ev4_home" />
	</flow>

	<flow id="HH_12_EV_5" type="electric_medium" begin="6600" end="86400" number="1" from="145475493#0" to="145475493#0" via="255326868#0">

		<stop chargingStation="hh12_ev5_work" until="36000" />
		<stop parkingArea="hh12_ev5_home" />
	</flow>

	<flow id="HH_12_EV_6" type="electric_medium" begin="6600" end="86400" number="1" from="-40308555#1" to="-40308555#1" via="-299684295#0">

		<stop chargingStation="hh12_ev6_work" until="36000" />
		<stop chargingStation="hh12_ev6_homecs" />
	</flow>

	<flow id="HH_12_EV_7" type="electric_medium" begin="6600" end="86400" number="1" from="25990706#4" to="25990706#4" via="-338164459#2">

		<stop chargingStation="hh12_ev7_work" until="36000" />
		<stop parkingArea="hh12_ev7_home" />
	</flow>

	<flow id="HH_12_EV_8" type="electric_medium" begin="6600" end="86400" number="1" from="253848481#3" to="253848481#3" via="-253529774#0">

		<stop chargingStation="hh12_ev8_work" until="36000" />
		<stop parkingArea="hh12_ev8_home" />
	</flow>

	<flow id="HH_12_EV_9" type="electric_medium" begin="6600" end="86400" number="1" from="-24534636#0" to="-24534636#0" via="22650119#5">

		<stop chargingStation="hh12_ev9_work" until="36000" />
		<stop parkingArea="hh12_ev9_home" />
	</flow>

	<flow id="HH_12_EV_10" type="electric_medium" begin="6600" end="86400" number="1" from="22650143#8" to="22650143#8" via="28647442#0">

		<stop chargingStation="hh12_ev10_work" until="36000" />
		<stop parkingArea="hh12_ev10_home" />
	</flow>

	<flow id="HH_12_EV_11" type="electric_medium" begin="6600" end="86400" number="1" from="295539955#0" to="295539955#0" via="188283528#1">

		<stop chargingStation="hh12_ev11_work" until="36000" />
		<stop parkingArea="hh12_ev11_home" />
	</flow>

	<flow id="HH_12_EV_12" type="electric_medium" begin="6600" end="86400" number="1" from="-29494923#3" to="-29494923#3" via="39272738#4">

		<stop chargingStation="hh12_ev12_work" until="36000" />
		<stop chargingStation="hh12_ev12_homecs" />
	</flow>

	<flow id="HH_12_EV_13" type="electric_medium" begin="6600" end="86400" number="1" from="-254905726#0" to="-254905726#0" via="27401820#0">

		<stop chargingStation="hh12_ev13_work" until="36000" />
		<stop parkingArea="hh12_ev13_home" />
	</flow>

	<flow id="HH_12_EV_14" type="electric_medium" begin="6600" end="86400" number="1" from="-117904582#11" to="-117904582#11" via="-295678414#12">

		<stop chargingStation="hh12_ev14_work" until="36000" />
		<stop chargingStation="hh12_ev14_homecs" />
	</flow>

	<flow id="HH_12_EV_15" type="electric_medium" begin="6600" end="86400" number="1" from="146817922" to="146817922" via="39272744#1">

		<stop chargingStation="hh12_ev15_work" until="36000" />
		<stop parkingArea="hh12_ev15_home" />
	</flow>

	<flow id="HH_12_EV_16" type="electric_medium" begin="6600" end="86400" number="1" from="30993661#1" to="30993661#1" via="-23055466#3">

		<stop chargingStation="hh12_ev16_work" until="36000" />
		<stop parkingArea="hh12_ev16_home" />
	</flow>

	<flow id="HH_12_EV_17" type="electric_medium" begin="6600" end="86400" number="1" from="-240321445#3" to="-240321445#3" via="187977271">

		<stop chargingStation="hh12_ev17_work" until="36000" />
		<stop parkingArea="hh12_ev17_home" />
	</flow>

	<flow id="HH_12_EV_18" type="electric_medium" begin="6600" end="86400" number="1" from="-33173437#0" to="-33173437#0" via="-240321454#1">

		<stop chargingStation="hh12_ev18_work" until="36000" />
		<stop parkingArea="hh12_ev18_home" />
	</flow>

	<flow id="HH_12_EV_19" type="electric_medium" begin="6600" end="86400" number="1" from="-338754000#0" to="-338754000#0" via="345132902">

		<stop chargingStation="hh12_ev19_work" until="36000" />