<?xml version="1.0" encoding="UTF-8"?>

<!-- generated on 08/16/21 14:49:24 by Eclipse SUMO netedit Version 1.8.0
<configuration xmlns:xsi="http://www.w3.org/2001/XMLSchema-instance" xsi:noNamespaceSchemaLocation="http://sumo.dlr.de/xsd/netconvertConfiguration.xsd">

    <input>
        <sumo-net-file value="mannheim.net.xml"/>
    </input>

    <output>
        <output-file value="mannheim.net.xml"/>
    </output>

    <processing>
        <geometry.min-radius.fix.railways value="false"/>
        <geometry.max-grade.fix value="false"/>
        <offset.disable-normalization value="true"/>
        <lefthand value="false"/>
    </processing>

    <junctions>
        <no-turnarounds value="true"/>
        <junctions.corner-detail value="5"/>
        <junctions.limit-turn-speed value="5.5"/>
        <rectangular-lane-cut value="false"/>
    </junctions>

    <pedestrian>
        <walkingareas value="false"/>
    </pedestrian>

    <netedit>
        <additional-files value="C:\Users\joey_\Desktop\mannheim808\mannheim.add.xml"/>
    </netedit>

    <report>
        <aggregate-warnings value="5"/>
    </report>

</configuration>
-->

<!-- <additional xmlns:xsi="http://www.w3.org/2001/XMLSchema-instance" xsi:noNamespaceSchemaLocation="http://sumo.dlr.de/xsd/additional_file.xsd"> -->


<additional>
<!-- HH1 Home Parking Area -->

	<parkingArea id="hh1_ev1_home" lane="-152094878#0_0" startPos="0" endPos="10" roadsideCapacity="1" friendlyPos="1" width="5.00" length="10" angle="30.00"/>
	<parkingArea id="hh1_ev2_home" lane="386455084#2_0" startPos="0" endPos="10" roadsideCapacity="1" friendlyPos="1" width="5.00" length="10" angle="30.00"/>
	<parkingArea id="hh1_ev3_home" lane="41269910#2_0" startPos="0" endPos="10" roadsideCapacity="1" friendlyPos="1" width="5.00" length="10" angle="30.00"/>
	<parkingArea id="hh1_ev4_home" lane="-37629342#11_0" startPos="0" endPos="10" roadsideCapacity="1" friendlyPos="1" width="5.00" length="10" angle="30.00"/>
	<parkingArea id="hh1_ev5_home" lane="-23055466#0_0" startPos="0" endPos="10" roadsideCapacity="1" friendlyPos="1" width="5.00" length="10" angle="30.00"/>
	<parkingArea id="hh1_ev6_home" lane="284785959#1_0" startPos="0" endPos="10" roadsideCapacity="1" friendlyPos="1" width="5.00" length="10" angle="30.00"/>
	<parkingArea id="hh1_ev7_home" lane="253498071_0" startPos="0" endPos="10" roadsideCapacity="1" friendlyPos="1" width="5.00" length="10" angle="30.00"/>
	<parkingArea id="hh1_ev8_home" lane="-240576082#10_0" startPos="0" endPos="10" roadsideCapacity="1" friendlyPos="1" width="5.00" length="10" angle="30.00"/>
	<parkingArea id="hh1_ev9_home" lane="-167271071#5_0" startPos="0" endPos="10" roadsideCapacity="1" friendlyPos="1" width="5.00" length="10" angle="30.00"/>
	<parkingArea id="hh1_ev10_home" lane="-33469701#10_0" startPos="0" endPos="10" roadsideCapacity="1" friendlyPos="1" width="5.00" length="10" angle="30.00"/>
	<parkingArea id="hh1_ev11_home" lane="-517755373#1_0" startPos="0" endPos="10" roadsideCapacity="1" friendlyPos="1" width="5.00" length="10" angle="30.00"/>
	<parkingArea id="hh1_ev12_home" lane="-15514336#0_0" startPos="0" endPos="10" roadsideCapacity="1" friendlyPos="1" width="5.00" length="10" angle="30.00"/>
	<parkingArea id="hh1_ev13_home" lane="240576082#4_0" startPos="0" endPos="10" roadsideCapacity="1" friendlyPos="1" width="5.00" length="10" angle="30.00"/>
	<parkingArea id="hh1_ev14_home" lane="126874898#9_0" startPos="0" endPos="10" roadsideCapacity="1" friendlyPos="1" width="5.00" length="10" angle="30.00"/>
	<parkingArea id="hh1_ev15_home" lane="172303389#1_0" startPos="0" endPos="10" roadsideCapacity="1" friendlyPos="1" width="5.00" length="10" angle="30.00"/>
	<parkingArea id="hh1_ev16_home" lane="173089724_0" startPos="0" endPos="10" roadsideCapacity="1" friendlyPos="1" width="5.00" length="10" angle="30.00"/>
	<parkingArea id="hh1_ev17_home" lane="27355810#3_0" startPos="0" endPos="10" roadsideCapacity="1" friendlyPos="1" width="5.00" length="10" angle="30.00"/>
	<parkingArea id="hh1_ev18_home" lane="44089775#2_0" startPos="0" endPos="10" roadsideCapacity="1" friendlyPos="1" width="5.00" length="10" angle="30.00"/>
	<parkingArea id="hh1_ev19_home" lane="9675834#3_0" startPos="0" endPos="10" roadsideCapacity="1" friendlyPos="1" width="5.00" length="10" angle="30.00"/>
	<parkingArea id="hh1_ev20_home" lane="-182443701_0" startPos="0" endPos="10" roadsideCapacity="1" friendlyPos="1" width="5.00" length="10" angle="30.00"/>
	<parkingArea id="hh1_ev21_home" lane="-9726569_0" startPos="0" endPos="10" roadsideCapacity="1" friendlyPos="1" width="5.00" length="10" angle="30.00"/>
	<parkingArea id="hh1_ev22_home" lane="133431646_0" startPos="0" endPos="10" roadsideCapacity="1" friendlyPos="1" width="5.00" length="10" angle="30.00"/>
	<parkingArea id="hh1_ev23_home" lane="-39094338#0_0" startPos="0" endPos="10" roadsideCapacity="1" friendlyPos="1" width="5.00" length="10" angle="30.00"/>
	<parkingArea id="hh1_ev24_home" lane="223171208#10_0" startPos="0" endPos="10" roadsideCapacity="1" friendlyPos="1" width="5.00" length="10" angle="30.00"/>
	<parkingArea id="hh1_ev25_home" lane="24600598#2_0" startPos="0" endPos="10" roadsideCapacity="1" friendlyPos="1" width="5.00" length="10" angle="30.00"/>
	<parkingArea id="hh1_ev26_home" lane="152922848#3_0" startPos="0" endPos="10" roadsideCapacity="1" friendlyPos="1" width="5.00" length="10" angle="30.00"/>
	<parkingArea id="hh1_ev27_home" lane="204526313#3_0" startPos="0" endPos="10" roadsideCapacity="1" friendlyPos="1" width="5.00" length="10" angle="30.00"/>
	<parkingArea id="hh1_ev28_home" lane="178376520_0" startPos="0" endPos="10" roadsideCapacity="1" friendlyPos="1" width="5.00" length="10" angle="30.00"/>
	<parkingArea id="hh1_ev29_home" lane="214296806#1_0" startPos="0" endPos="10" roadsideCapacity="1" friendlyPos="1" width="5.00" length="10" angle="30.00"/>
	<parkingArea id="hh1_ev30_home" lane="37840529#0_0" startPos="0" endPos="10" roadsideCapacity="1" friendlyPos="1" width="5.00" length="10" angle="30.00"/>
	<parkingArea id="hh1_ev31_home" lane="436584061#1_0" startPos="0" endPos="10" roadsideCapacity="1" friendlyPos="1" width="5.00" length="10" angle="30.00"/>
	<parkingArea id="hh1_ev32_home" lane="31097570#4_0" startPos="0" endPos="10" roadsideCapacity="1" friendlyPos="1" width="5.00" length="10" angle="30.00"/>
	<parkingArea id="hh1_ev33_home" lane="161292464#1_0" startPos="0" endPos="10" roadsideCapacity="1" friendlyPos="1" width="5.00" length="10" angle="30.00"/>
	<parkingArea id="hh1_ev34_home" lane="-27609555#3_0" startPos="0" endPos="10" roadsideCapacity="1" friendlyPos="1" width="5.00" length="10" angle="30.00"/>
	<parkingArea id="hh1_ev35_home" lane="245657076_0" startPos="0" endPos="10" roadsideCapacity="1" friendlyPos="1" width="5.00" length="10" angle="30.00"/>
	<parkingArea id="hh1_ev36_home" lane="23090192#0_0" startPos="0" endPos="10" roadsideCapacity="1" friendlyPos="1" width="5.00" length="10" angle="30.00"/>
	<parkingArea id="hh1_ev37_home" lane="-40711859#1_0" startPos="0" endPos="10" roadsideCapacity="1" friendlyPos="1" width="5.00" length="10" angle="30.00"/>
	<parkingArea id="hh1_ev38_home" lane="10770551#0_0" startPos="0" endPos="10" roadsideCapacity="1" friendlyPos="1" width="5.00" length="10" angle="30.00"/>
	<parkingArea id="hh1_ev39_home" lane="162476313#4_0" startPos="0" endPos="10" roadsideCapacity="1" friendlyPos="1" width="5.00" length="10" angle="30.00"/>
	<parkingArea id="hh1_ev40_home" lane="190053109#5_0" startPos="0" endPos="10" roadsideCapacity="1" friendlyPos="1" width="5.00" length="10" angle="30.00"/>
	<parkingArea id="hh1_ev41_home" lane="-4914602#5_0" startPos="0" endPos="10" roadsideCapacity="1" friendlyPos="1" width="5.00" length="10" angle="30.00"/>
	<parkingArea id="hh1_ev42_home" lane="31027744#14_0" startPos="0" endPos="10" roadsideCapacity="1" friendlyPos="1" width="5.00" length="10" angle="30.00"/>
	<parkingArea id="hh1_ev43_home" lane="-32659889#9_0" startPos="0" endPos="10" roadsideCapacity="1" friendlyPos="1" width="5.00" length="10" angle="30.00"/>
	<parkingArea id="hh1_ev44_home" lane="-118331599#4_0" startPos="0" endPos="10" roadsideCapacity="1" friendlyPos="1" width="5.00" length="10" angle="30.00"/>
	<parkingArea id="hh1_ev45_home" lane="150393272#2_0" startPos="0" endPos="10" roadsideCapacity="1" friendlyPos="1" width="5.00" length="10" angle="30.00"/>
	<parkingArea id="hh1_ev46_home" lane="314826384#3_0" startPos="0" endPos="10" roadsideCapacity="1" friendlyPos="1" width="5.00" length="10" angle="30.00"/>
	<parkingArea id="hh1_ev47_home" lane="-781277118#4_0" startPos="0" endPos="10" roadsideCapacity="1" friendlyPos="1" width="5.00" length="10" angle="30.00"/>
	<parkingArea id="hh1_ev48_home" lane="123383128#0_0" startPos="0" endPos="10" roadsideCapacity="1" friendlyPos="1" width="5.00" length="10" angle="30.00"/>
	<parkingArea id="hh1_ev49_home" lane="-371968071#1_0" startPos="0" endPos="10" roadsideCapacity="1" friendlyPos="1" width="5.00" length="10" angle="30.00"/>
	<parkingArea id="hh1_ev50_home" lane="-32622556#2_0" startPos="0" endPos="10" roadsideCapacity="1" friendlyPos="1" width="5.00" length="10" angle="30.00"/>
	<parkingArea id="hh1_ev51_home" lane="25990659#1_0" startPos="0" endPos="10" roadsideCapacity="1" friendlyPos="1" width="5.00" length="10" angle="30.00"/>
	<parkingArea id="hh1_ev52_home" lane="-284785959#1_0" startPos="0" endPos="10" roadsideCapacity="1" friendlyPos="1" width="5.00" length="10" angle="30.00"/>
	<parkingArea id="hh1_ev53_home" lane="108404032#0_0" startPos="0" endPos="10" roadsideCapacity="1" friendlyPos="1" width="5.00" length="10" angle="30.00"/>
	<parkingArea id="hh1_ev54_home" lane="-150694624#3_0" startPos="0" endPos="10" roadsideCapacity="1" friendlyPos="1" width="5.00" length="10" angle="30.00"/>
	<parkingArea id="hh1_ev55_home" lane="127971033#3_0" startPos="0" endPos="10" roadsideCapacity="1" friendlyPos="1" width="5.00" length="10" angle="30.00"/>
	<parkingArea id="hh1_ev56_home" lane="852475938#2_0" startPos="0" endPos="10" roadsideCapacity="1" friendlyPos="1" width="5.00" length="10" angle="30.00"/>
	<parkingArea id="hh1_ev57_home" lane="93785463#1_0" startPos="0" endPos="10" roadsideCapacity="1" friendlyPos="1" width="5.00" length="10" angle="30.00"/>
	<parkingArea id="hh1_ev58_home" lane="-924392763_0" startPos="0" endPos="10" roadsideCapacity="1" friendlyPos="1" width="5.00" length="10" angle="30.00"/>
	<parkingArea id="hh1_ev59_home" lane="-152102411#3_0" startPos="0" endPos="10" roadsideCapacity="1" friendlyPos="1" width="5.00" length="10" angle="30.00"/>
	<parkingArea id="hh1_ev60_home" lane="40308556#2_0" startPos="0" endPos="10" roadsideCapacity="1" friendlyPos="1" width="5.00" length="10" angle="30.00"/>
	<parkingArea id="hh1_ev61_home" lane="-33118714#1_0" startPos="0" endPos="10" roadsideCapacity="1" friendlyPos="1" width="5.00" length="10" angle="30.00"/>
	<parkingArea id="hh1_ev62_home" lane="-273500968#2_0" startPos="0" endPos="10" roadsideCapacity="1" friendlyPos="1" width="5.00" length="10" angle="30.00"/>
	<parkingArea id="hh1_ev63_home" lane="-171503239#0_0" startPos="0" endPos="10" roadsideCapacity="1" friendlyPos="1" width="5.00" length="10" angle="30.00"/>
	<parkingArea id="hh1_ev64_home" lane="-155202371#2_0" startPos="0" endPos="10" roadsideCapacity="1" friendlyPos="1" width="5.00" length="10" angle="30.00"/>
	<parkingArea id="hh1_ev65_home" lane="-152093051#2_0" startPos="0" endPos="10" roadsideCapacity="1" friendlyPos="1" width="5.00" length="10" angle="30.00"/>
	<parkingArea id="hh1_ev66_home" lane="357343728#3_0" startPos="0" endPos="10" roadsideCapacity="1" friendlyPos="1" width="5.00" length="10" angle="30.00"/>
	<parkingArea id="hh1_ev67_home" lane="626407020#4_0" startPos="0" endPos="10" roadsideCapacity="1" friendlyPos="1" width="5.00" length="10" angle="30.00"/>
	<parkingArea id="hh1_ev68_home" lane="-30640525#2_0" startPos="0" endPos="10" roadsideCapacity="1" friendlyPos="1" width="5.00" length="10" angle="30.00"/>
	<parkingArea id="hh1_ev69_home" lane="-145560560_0" startPos="0" endPos="10" roadsideCapacity="1" friendlyPos="1" width="5.00" length="10" angle="30.00"/>
	<parkingArea id="hh1_ev70_home" lane="-102541101#2_0" startPos="0" endPos="10" roadsideCapacity="1" friendlyPos="1" width="5.00" length="10" angle="30.00"/>
	<parkingArea id="hh1_ev71_home" lane="-182489863_0" startPos="0" endPos="10" roadsideCapacity="1" friendlyPos="1" width="5.00" length="10" angle="30.00"/>
	<parkingArea id="hh1_ev72_home" lane="-15537008#3_0" startPos="0" endPos="10" roadsideCapacity="1" friendlyPos="1" width="5.00" length="10" angle="30.00"/>
	<parkingArea id="hh1_ev73_home" lane="62053847_0" startPos="0" endPos="10" roadsideCapacity="1" friendlyPos="1" width="5.00" length="10" angle="30.00"/>
	<parkingArea id="hh1_ev74_home" lane="-155061852#0_0" startPos="0" endPos="10" roadsideCapacity="1" friendlyPos="1" width="5.00" length="10" angle="30.00"/>
	<parkingArea id="hh1_ev75_home" lane="313869323_0" startPos="0" endPos="10" roadsideCapacity="1" friendlyPos="1" width="5.00" length="10" angle="30.00"/>

<!-- HH1 Public Charging Station -->

	<chargingStation id="hh1_ev1_public" lane="158518671#5_0" startPos="0" endPos="10" friendlyPos="1" power="22000" efficiency="1.0"/>
	<chargingStation id="hh1_ev2_public" lane="-156257280#1_0" startPos="0" endPos="10" friendlyPos="1" power="22000" efficiency="1.0"/>
	<chargingStation id="hh1_ev3_public" lane="226238005#0_0" startPos="0" endPos="10" friendlyPos="1" power="22000" efficiency="1.0"/>
	<chargingStation id="hh1_ev4_public" lane="-210441943_0" startPos="0" endPos="10" friendlyPos="1" power="22000" efficiency="1.0"/>
	<chargingStation id="hh1_ev5_public" lane="27245567#2_0" startPos="0" endPos="10" friendlyPos="1" power="22000" efficiency="1.0"/>
	<chargingStation id="hh1_ev6_public" lane="4235269#0_1" startPos="0" endPos="10" friendlyPos="1" power="22000" efficiency="1.0"/>
	<chargingStation id="hh1_ev7_public" lane="30993772#3_0" startPos="0" endPos="10" friendlyPos="1" power="22000" efficiency="1.0"/>
	<chargingStation id="hh1_ev8_public" lane="-42820205#3_0" startPos="0" endPos="10" friendlyPos="1" power="22000" efficiency="1.0"/>
	<chargingStation id="hh1_ev9_public" lane="403467278_0" startPos="0" endPos="10" friendlyPos="1" power="22000" efficiency="1.0"/>
	<chargingStation id="hh1_ev10_public" lane="-39273945#1_0" startPos="0" endPos="10" friendlyPos="1" power="22000" efficiency="1.0"/>
	<chargingStation id="hh1_ev11_public" lane="-203503112_0" startPos="0" endPos="10" friendlyPos="1" power="22000" efficiency="1.0"/>
	<chargingStation id="hh1_ev12_public" lane="181494782#0_0" startPos="0" endPos="10" friendlyPos="1" power="22000" efficiency="1.0"/>
	<chargingStation id="hh1_ev13_public" lane="205103380#0_0" startPos="0" endPos="10" friendlyPos="1" power="22000" efficiency="1.0"/>
	<chargingStation id="hh1_ev14_public" lane="-250851798_0" startPos="0" endPos="10" friendlyPos="1" power="22000" efficiency="1.0"/>
	<chargingStation id="hh1_ev15_public" lane="53387607#2_0" startPos="0" endPos="10" friendlyPos="1" power="22000" efficiency="1.0"/>
	<chargingStation id="hh1_ev16_public" lane="32811517#1_0" startPos="0" endPos="10" friendlyPos="1" power="22000" efficiency="1.0"/>
	<chargingStation id="hh1_ev17_public" lane="14969197#2_0" startPos="0" endPos="10" friendlyPos="1" power="22000" efficiency="1.0"/>
	<chargingStation id="hh1_ev18_public" lane="32622552#0_0" startPos="0" endPos="10" friendlyPos="1" power="22000" efficiency="1.0"/>
	<chargingStation id="hh1_ev19_public" lane="-152093047#1_0" startPos="0" endPos="10" friendlyPos="1" power="22000" efficiency="1.0"/>
	<chargingStation id="hh1_ev20_public" lane="26679094#1_0" startPos="0" endPos="10" friendlyPos="1" power="22000" efficiency="1.0"/>
	<chargingStation id="hh1_ev21_public" lane="-247070784#8_0" startPos="0" endPos="10" friendlyPos="1" power="22000" efficiency="1.0"/>
	<chargingStation id="hh1_ev22_public" lane="255389621#3_0" startPos="0" endPos="10" friendlyPos="1" power="22000" efficiency="1.0"/>
	<chargingStation id="hh1_ev23_public" lane="39859783_0" startPos="0" endPos="10" friendlyPos="1" power="22000" efficiency="1.0"/>
	<chargingStation id="hh1_ev24_public" lane="-443341030_0" startPos="0" endPos="10" friendlyPos="1" power="22000" efficiency="1.0"/>
	<chargingStation id="hh1_ev25_public" lane="164087089#1_0" startPos="0" endPos="10" friendlyPos="1" power="22000" efficiency="1.0"/>
	<chargingStation id="hh1_ev26_public" lane="-108339476#4_0" startPos="0" endPos="10" friendlyPos="1" power="22000" efficiency="1.0"/>
	<chargingStation id="hh1_ev27_public" lane="-37845481#0_0" startPos="0" endPos="10" friendlyPos="1" power="22000" efficiency="1.0"/>
	<chargingStation id="hh1_ev28_public" lane="255727585#0_0" startPos="0" endPos="10" friendlyPos="1" power="22000" efficiency="1.0"/>
	<chargingStation id="hh1_ev29_public" lane="-5488391#12_0" startPos="0" endPos="10" friendlyPos="1" power="22000" efficiency="1.0"/>
	<chargingStation id="hh1_ev30_public" lane="-28725375#0_0" startPos="0" endPos="10" friendlyPos="1" power="22000" efficiency="1.0"/>
	<chargingStation id="hh1_ev31_public" lane="188283528#0_0" startPos="0" endPos="10" friendlyPos="1" power="22000" efficiency="1.0"/>
	<chargingStation id="hh1_ev32_public" lane="-249224806#3_0" startPos="0" endPos="10" friendlyPos="1" power="22000" efficiency="1.0"/>
	<chargingStation id="hh1_ev33_public" lane="5488375#4_0" startPos="0" endPos="10" friendlyPos="1" power="22000" efficiency="1.0"/>
	<chargingStation id="hh1_ev34_public" lane="122049943#7_0" startPos="0" endPos="10" friendlyPos="1" power="22000" efficiency="1.0"/>
	<chargingStation id="hh1_ev35_public" lane="14890665#1_0" startPos="0" endPos="10" friendlyPos="1" power="22000" efficiency="1.0"/>
	<chargingStation id="hh1_ev36_public" lane="-178375257#5_0" startPos="0" endPos="10" friendlyPos="1" power="22000" efficiency="1.0"/>
	<chargingStation id="hh1_ev37_public" lane="-617341668_0" startPos="0" endPos="10" friendlyPos="1" power="22000" efficiency="1.0"/>
	<chargingStation id="hh1_ev38_public" lane="-42382103#1_0" startPos="0" endPos="10" friendlyPos="1" power="22000" efficiency="1.0"/>
	<chargingStation id="hh1_ev39_public" lane="618452122#1_0" startPos="0" endPos="10" friendlyPos="1" power="22000" efficiency="1.0"/>
	<chargingStation id="hh1_ev40_public" lane="258979171#0_0" startPos="0" endPos="10" friendlyPos="1" power="22000" efficiency="1.0"/>
	<chargingStation id="hh1_ev41_public" lane="546406951#1_0" startPos="0" endPos="10" friendlyPos="1" power="22000" efficiency="1.0"/>
	<chargingStation id="hh1_ev42_public" lane="-163870256_0" startPos="0" endPos="10" friendlyPos="1" power="22000" efficiency="1.0"/>
	<chargingStation id="hh1_ev43_public" lane="28655992#1_0" startPos="0" endPos="10" friendlyPos="1" power="22000" efficiency="1.0"/>
	<chargingStation id="hh1_ev44_public" lane="-161795935#0_0" startPos="0" endPos="10" friendlyPos="1" power="22000" efficiency="1.0"/>
	<chargingStation id="hh1_ev45_public" lane="10373110#2_0" startPos="0" endPos="10" friendlyPos="1" power="22000" efficiency="1.0"/>
	<chargingStation id="hh1_ev46_public" lane="564962298#1_0" startPos="0" endPos="10" friendlyPos="1" power="22000" efficiency="1.0"/>
	<chargingStation id="hh1_ev47_public" lane="28679895#7_0" startPos="0" endPos="10" friendlyPos="1" power="22000" efficiency="1.0"/>
	<chargingStation id="hh1_ev48_public" lane="-35834157#2_0" startPos="0" endPos="10" friendlyPos="1" power="22000" efficiency="1.0"/>
	<chargingStation id="hh1_ev49_public" lane="-520753136#1_0" startPos="0" endPos="10" friendlyPos="1" power="22000" efficiency="1.0"/>
	<chargingStation id="hh1_ev50_public" lane="178375257#3_0" startPos="0" endPos="10" friendlyPos="1" power="22000" efficiency="1.0"/>
	<chargingStation id="hh1_ev51_public" lane="215971176#1_0" startPos="0" endPos="10" friendlyPos="1" power="22000" efficiency="1.0"/>
	<chargingStation id="hh1_ev52_public" lane="-364723148#2_0" startPos="0" endPos="10" friendlyPos="1" power="22000" efficiency="1.0"/>
	<chargingStation id="hh1_ev53_public" lane="121622109#1_0" startPos="0" endPos="10" friendlyPos="1" power="22000" efficiency="1.0"/>
	<chargingStation id="hh1_ev54_public" lane="33359863#4_0" startPos="0" endPos="10" friendlyPos="1" power="22000" efficiency="1.0"/>
	<chargingStation id="hh1_ev55_public" lane="156257272#3_0" startPos="0" endPos="10" friendlyPos="1" power="22000" efficiency="1.0"/>
	<chargingStation id="hh1_ev56_public" lane="-28619423#3_0" startPos="0" endPos="10" friendlyPos="1" power="22000" efficiency="1.0"/>
	<chargingStation id="hh1_ev57_public" lane="5199955#1_0" startPos="0" endPos="10" friendlyPos="1" power="22000" efficiency="1.0"/>
	<chargingStation id="hh1_ev58_public" lane="-5488391#10_0" startPos="0" endPos="10" friendlyPos="1" power="22000" efficiency="1.0"/>
	<chargingStation id="hh1_ev59_public" lane="161489119#14_0" startPos="0" endPos="10" friendlyPos="1" power="22000" efficiency="1.0"/>
	<chargingStation id="hh1_ev60_public" lane="-254905726#1_0" startPos="0" endPos="10" friendlyPos="1" power="22000" efficiency="1.0"/>
	<chargingStation id="hh1_ev61_public" lane="25831927#5_0" startPos="0" endPos="10" friendlyPos="1" power="22000" efficiency="1.0"/>
	<chargingStation id="hh1_ev62_public" lane="564962292#4_0" startPos="0" endPos="10" friendlyPos="1" power="22000" efficiency="1.0"/>
	<chargingStation id="hh1_ev63_public" lane="-14889848#2_0" startPos="0" endPos="10" friendlyPos="1" power="22000" efficiency="1.0"/>
	<chargingStation id="hh1_ev64_public" lane="-18672187#1_0" startPos="0" endPos="10" friendlyPos="1" power="22000" efficiency="1.0"/>
	<chargingStation id="hh1_ev65_public" lane="32594899#4_0" startPos="0" endPos="10" friendlyPos="1" power="22000" efficiency="1.0"/>
	<chargingStation id="hh1_ev66_public" lane="220875542#0_0" startPos="0" endPos="10" friendlyPos="1" power="22000" efficiency="1.0"/>
	<chargingStation id="hh1_ev67_public" lane="44089775#4_0" startPos="0" endPos="10" friendlyPos="1" power="22000" efficiency="1.0"/>
	<chargingStation id="hh1_ev68_public" lane="-128238314#1_0" startPos="0" endPos="10" friendlyPos="1" power="22000" efficiency="1.0"/>
	<chargingStation id="hh1_ev69_public" lane="-5488391#11_0" startPos="0" endPos="10" friendlyPos="1" power="22000" efficiency="1.0"/>
	<chargingStation id="hh1_ev70_public" lane="5199695#8_0" startPos="0" endPos="10" friendlyPos="1" power="22000" efficiency="1.0"/>
	<chargingStation id="hh1_ev71_public" lane="40331206#2_0" startPos="0" endPos="10" friendlyPos="1" power="22000" efficiency="1.0"/>
	<chargingStation id="hh1_ev72_public" lane="-9674506#12_0" startPos="0" endPos="10" friendlyPos="1" power="22000" efficiency="1.0"/>
	<chargingStation id="hh1_ev73_public" lane="-366630536#6_0" startPos="0" endPos="10" friendlyPos="1" power="22000" efficiency="1.0"/>
	<chargingStation id="hh1_ev74_public" lane="-293597693#7_0" startPos="0" endPos="10" friendlyPos="1" power="22000" efficiency="1.0"/>
	<chargingStation id="hh1_ev75_public" lane="25851182#6_0" startPos="0" endPos="10" friendlyPos="1" power="22000" efficiency="1.0"/>


<!-- HH2 Home Parking Area -->

	<parkingArea id="hh2_ev1_home" lane="-121144959#2_0" startPos="0" endPos="10" roadsideCapacity="1" friendlyPos="1" width="5.00" length="10" angle="30.00"/>
	<parkingArea id="hh2_ev2_home" lane="27235301_0" startPos="0" endPos="10" roadsideCapacity="1" friendlyPos="1" width="5.00" length="10" angle="30.00"/>
	<parkingArea id="hh2_ev3_home" lane="-176241129#1_0" startPos="0" endPos="10" roadsideCapacity="1" friendlyPos="1" width="5.00" length="10" angle="30.00"/>
	<parkingArea id="hh2_ev4_home" lane="251820258_0" startPos="0" endPos="10" roadsideCapacity="1" friendlyPos="1" width="5.00" length="10" angle="30.00"/>
	<parkingArea id="hh2_ev5_home" lane="121797363#1_0" startPos="0" endPos="10" roadsideCapacity="1" friendlyPos="1" width="5.00" length="10" angle="30.00"/>
	<parkingArea id="hh2_ev6_home" lane="35922622_0" startPos="0" endPos="10" roadsideCapacity="1" friendlyPos="1" width="5.00" length="10" angle="30.00"/>
	<parkingArea id="hh2_ev7_home" lane="14890079#6_0" startPos="0" endPos="10" roadsideCapacity="1" friendlyPos="1" width="5.00" length="10" angle="30.00"/>
	<parkingArea id="hh2_ev8_home" lane="28264428_0" startPos="0" endPos="10" roadsideCapacity="1" friendlyPos="1" width="5.00" length="10" angle="30.00"/>
	<parkingArea id="hh2_ev9_home" lane="269017614_0" startPos="0" endPos="10" roadsideCapacity="1" friendlyPos="1" width="5.00" length="10" angle="30.00"/>
	<parkingArea id="hh2_ev10_home" lane="-432815736_0" startPos="0" endPos="10" roadsideCapacity="1" friendlyPos="1" width="5.00" length="10" angle="30.00"/>
	<parkingArea id="hh2_ev11_home" lane="190463205#1_0" startPos="0" endPos="10" roadsideCapacity="1" friendlyPos="1" width="5.00" length="10" angle="30.00"/>
	<parkingArea id="hh2_ev12_home" lane="-18843862#7_0" startPos="0" endPos="10" roadsideCapacity="1" friendlyPos="1" width="5.00" length="10" angle="30.00"/>
	<parkingArea id="hh2_ev13_home" lane="-17479197#3_0" startPos="0" endPos="10" roadsideCapacity="1" friendlyPos="1" width="5.00" length="10" angle="30.00"/>
	<parkingArea id="hh2_ev14_home" lane="-39273945#4_0" startPos="0" endPos="10" roadsideCapacity="1" friendlyPos="1" width="5.00" length="10" angle="30.00"/>
	<parkingArea id="hh2_ev15_home" lane="341346901_0" startPos="0" endPos="10" roadsideCapacity="1" friendlyPos="1" width="5.00" length="10" angle="30.00"/>
	<parkingArea id="hh2_ev16_home" lane="-33419864#5_0" startPos="0" endPos="10" roadsideCapacity="1" friendlyPos="1" width="5.00" length="10" angle="30.00"/>
	<parkingArea id="hh2_ev17_home" lane="97301282#0_0" startPos="0" endPos="10" roadsideCapacity="1" friendlyPos="1" width="5.00" length="10" angle="30.00"/>
	<parkingArea id="hh2_ev18_home" lane="191174814#4_0" startPos="0" endPos="10" roadsideCapacity="1" friendlyPos="1" width="5.00" length="10" angle="30.00"/>
	<parkingArea id="hh2_ev19_home" lane="27435039#1_0" startPos="0" endPos="10" roadsideCapacity="1" friendlyPos="1" width="5.00" length="10" angle="30.00"/>
	<parkingArea id="hh2_ev20_home" lane="34630548#1_0" startPos="0" endPos="10" roadsideCapacity="1" friendlyPos="1" width="5.00" length="10" angle="30.00"/>
	<parkingArea id="hh2_ev21_home" lane="240321447#1_0" startPos="0" endPos="10" roadsideCapacity="1" friendlyPos="1" width="5.00" length="10" angle="30.00"/>
	<parkingArea id="hh2_ev22_home" lane="-624680707#6_0" startPos="0" endPos="10" roadsideCapacity="1" friendlyPos="1" width="5.00" length="10" angle="30.00"/>
	<parkingArea id="hh2_ev23_home" lane="577583032_0" startPos="0" endPos="10" roadsideCapacity="1" friendlyPos="1" width="5.00" length="10" angle="30.00"/>
	<parkingArea id="hh2_ev24_home" lane="-32594900#2_0" startPos="0" endPos="10" roadsideCapacity="1" friendlyPos="1" width="5.00" length="10" angle="30.00"/>
	<parkingArea id="hh2_ev25_home" lane="44498789#1_0" startPos="0" endPos="10" roadsideCapacity="1" friendlyPos="1" width="5.00" length="10" angle="30.00"/>
	<parkingArea id="hh2_ev26_home" lane="15216238#14_0" startPos="0" endPos="10" roadsideCapacity="1" friendlyPos="1" width="5.00" length="10" angle="30.00"/>
	<parkingArea id="hh2_ev27_home" lane="-39272747#6_0" startPos="0" endPos="10" roadsideCapacity="1" friendlyPos="1" width="5.00" length="10" angle="30.00"/>
	<parkingArea id="hh2_ev28_home" lane="-432324097_0" startPos="0" endPos="10" roadsideCapacity="1" friendlyPos="1" width="5.00" length="10" angle="30.00"/>
	<parkingArea id="hh2_ev29_home" lane="107322547#1_0" startPos="0" endPos="10" roadsideCapacity="1" friendlyPos="1" width="5.00" length="10" angle="30.00"/>
	<parkingArea id="hh2_ev30_home" lane="152505156#4_0" startPos="0" endPos="10" roadsideCapacity="1" friendlyPos="1" width="5.00" length="10" angle="30.00"/>
	<parkingArea id="hh2_ev31_home" lane="25209837_0" startPos="0" endPos="10" roadsideCapacity="1" friendlyPos="1" width="5.00" length="10" angle="30.00"/>
	<parkingArea id="hh2_ev32_home" lane="132122187#1_0" startPos="0" endPos="10" roadsideCapacity="1" friendlyPos="1" width="5.00" length="10" angle="30.00"/>
	<parkingArea id="hh2_ev33_home" lane="86428625#1_0" startPos="0" endPos="10" roadsideCapacity="1" friendlyPos="1" width="5.00" length="10" angle="30.00"/>
	<parkingArea id="hh2_ev34_home" lane="180306703_0" startPos="0" endPos="10" roadsideCapacity="1" friendlyPos="1" width="5.00" length="10" angle="30.00"/>
	<parkingArea id="hh2_ev35_home" lane="157458262#0_0" startPos="0" endPos="10" roadsideCapacity="1" friendlyPos="1" width="5.00" length="10" angle="30.00"/>
	<parkingArea id="hh2_ev36_home" lane="254905726#0_0" startPos="0" endPos="10" roadsideCapacity="1" friendlyPos="1" width="5.00" length="10" angle="30.00"/>
	<parkingArea id="hh2_ev37_home" lane="203059058#0_0" startPos="0" endPos="10" roadsideCapacity="1" friendlyPos="1" width="5.00" length="10" angle="30.00"/>
	<parkingArea id="hh2_ev38_home" lane="-30924894#1_0" startPos="0" endPos="10" roadsideCapacity="1" friendlyPos="1" width="5.00" length="10" angle="30.00"/>
	<parkingArea id="hh2_ev39_home" lane="328005193#4_0" startPos="0" endPos="10" roadsideCapacity="1" friendlyPos="1" width="5.00" length="10" angle="30.00"/>
	<parkingArea id="hh2_ev40_home" lane="-161913422#0_0" startPos="0" endPos="10" roadsideCapacity="1" friendlyPos="1" width="5.00" length="10" angle="30.00"/>
	<parkingArea id="hh2_ev41_home" lane="37629353#9_0" startPos="0" endPos="10" roadsideCapacity="1" friendlyPos="1" width="5.00" length="10" angle="30.00"/>
	<parkingArea id="hh2_ev42_home" lane="27571923#1_0" startPos="0" endPos="10" roadsideCapacity="1" friendlyPos="1" width="5.00" length="10" angle="30.00"/>